/*--------------------------------*- C++ -*----------------------------------*\
  =========                 |
  \\      /  F ield         | OpenFOAM: The Open Source CFD Toolbox
   \\    /   O peration     | Website:  https://openfoam.org
    \\  /    A nd           | Version:  7
     \\/     M anipulation  |
\*---------------------------------------------------------------------------*/
FoamFile
{
    version     2.0;
    format      ascii;
    class       polyBoundaryMesh;
    location    "constant/polyMesh";
    object      boundary;
}
// * * * * * * * * * * * * * * * * * * * * * * * * * * * * * * * * * * * * * //

6
(
    walls_channel
    {
        type            patch;
        physicalType    patch;
        nFaces          3325;
        startFace       126932;
    }
    walls_porous
    {
        type            patch;
        physicalType    patch;
        nFaces          2765;
        startFace       130257;
    }
    inlet
    {
        type            patch;
        physicalType    patch;
        nFaces          437;
        startFace       133022;
    }
    walls_intrusion
    {
        type            patch;
        physicalType    patch;
        nFaces          1053;
        startFace       133459;
    }
    outlet
    {
        type            patch;
        physicalType    patch;
        nFaces          0;
        startFace       134512;
    }
    procBoundary0to1
    {
        type            processor;
        inGroups        List<word> 1(processor);
        nFaces          1764;
        startFace       134512;
        matchTolerance  0.0001;
        transform       unknown;
        myProcNo        0;
        neighbProcNo    1;
    }
)

// ************************************************************************* //
