/*--------------------------------*- C++ -*----------------------------------*\
  =========                 |
  \\      /  F ield         | OpenFOAM: The Open Source CFD Toolbox
   \\    /   O peration     | Website:  https://openfoam.org
    \\  /    A nd           | Version:  7
     \\/     M anipulation  |
\*---------------------------------------------------------------------------*/
FoamFile
{
    version     2.0;
    format      ascii;
    class       polyBoundaryMesh;
    location    "constant/polyMesh";
    object      boundary;
}
// * * * * * * * * * * * * * * * * * * * * * * * * * * * * * * * * * * * * * //

6
(
    walls_channel
    {
        type            patch;
        physicalType    patch;
        nFaces          3910;
        startFace       127367;
    }
    walls_porous
    {
        type            patch;
        physicalType    patch;
        nFaces          2214;
        startFace       131277;
    }
    inlet
    {
        type            patch;
        physicalType    patch;
        nFaces          437;
        startFace       133491;
    }
    walls_intrusion
    {
        type            patch;
        physicalType    patch;
        nFaces          468;
        startFace       133928;
    }
    outlet
    {
        type            patch;
        physicalType    patch;
        nFaces          0;
        startFace       134396;
    }
    procBoundary3to2
    {
        type            processor;
        inGroups        List<word> 1(processor);
        nFaces          1811;
        startFace       134396;
        matchTolerance  0.0001;
        transform       unknown;
        myProcNo        3;
        neighbProcNo    2;
    }
)

// ************************************************************************* //
