/*--------------------------------*- C++ -*----------------------------------*\
  =========                 |
  \\      /  F ield         | OpenFOAM: The Open Source CFD Toolbox
   \\    /   O peration     | Website:  https://openfoam.org
    \\  /    A nd           | Version:  7
     \\/     M anipulation  |
\*---------------------------------------------------------------------------*/
FoamFile
{
    version     2.0;
    format      ascii;
    class       polyBoundaryMesh;
    location    "constant/polyMesh";
    object      boundary;
}
// * * * * * * * * * * * * * * * * * * * * * * * * * * * * * * * * * * * * * //

6
(
    inlet
    {
        type            patch;
        physicalType    patch;
        nFaces          171;
        startFace       209611;
    }
    wallsPorous
    {
        type            patch;
        physicalType    patch;
        nFaces          6251;
        startFace       209782;
    }
    outlet2
    {
        type            patch;
        physicalType    patch;
        nFaces          423;
        startFace       216033;
    }
    outlet1
    {
        type            patch;
        physicalType    patch;
        nFaces          423;
        startFace       216456;
    }
    walls
    {
        type            patch;
        physicalType    patch;
        nFaces          5297;
        startFace       216879;
    }
    defaultFaces
    {
        type            patch;
        nFaces          585;
        startFace       222176;
    }
)

// ************************************************************************* //
