/*--------------------------------*- C++ -*----------------------------------*\
  =========                 |
  \\      /  F ield         | OpenFOAM: The Open Source CFD Toolbox
   \\    /   O peration     | Website:  https://openfoam.org
    \\  /    A nd           | Version:  7
     \\/     M anipulation  |
\*---------------------------------------------------------------------------*/
FoamFile
{
    version     2.0;
    format      ascii;
    class       polyBoundaryMesh;
    location    "constant/polyMesh";
    object      boundary;
}
// * * * * * * * * * * * * * * * * * * * * * * * * * * * * * * * * * * * * * //

7
(
    walls_channel
    {
        type            patch;
        physicalType    patch;
        nFaces          0;
        startFace       125306;
    }
    walls_porous
    {
        type            patch;
        physicalType    patch;
        nFaces          5033;
        startFace       125306;
    }
    inlet
    {
        type            patch;
        physicalType    patch;
        nFaces          0;
        startFace       130339;
    }
    walls_intrusion
    {
        type            patch;
        physicalType    patch;
        nFaces          0;
        startFace       130339;
    }
    outlet
    {
        type            patch;
        physicalType    patch;
        nFaces          0;
        startFace       130339;
    }
    procBoundary2to1
    {
        type            processor;
        inGroups        List<word> 1(processor);
        nFaces          1421;
        startFace       130339;
        matchTolerance  0.0001;
        transform       unknown;
        myProcNo        2;
        neighbProcNo    1;
    }
    procBoundary2to3
    {
        type            processor;
        inGroups        List<word> 1(processor);
        nFaces          1798;
        startFace       131760;
        matchTolerance  0.0001;
        transform       unknown;
        myProcNo        2;
        neighbProcNo    3;
    }
)

// ************************************************************************* //
