/*--------------------------------*- C++ -*----------------------------------*\
  =========                 |
  \\      /  F ield         | OpenFOAM: The Open Source CFD Toolbox
   \\    /   O peration     | Website:  https://openfoam.org
    \\  /    A nd           | Version:  7
     \\/     M anipulation  |
\*---------------------------------------------------------------------------*/
FoamFile
{
    version     2.0;
    format      ascii;
    class       polyBoundaryMesh;
    location    "constant/polyMesh";
    object      boundary;
}
// * * * * * * * * * * * * * * * * * * * * * * * * * * * * * * * * * * * * * //

6
(
    walls_channel
    {
        type            patch;
        physicalType    patch;
        nFaces          3910;
        startFace       125162;
    }
    walls_porous
    {
        type            patch;
        physicalType    patch;
        nFaces          1717;
        startFace       129072;
    }
    inlet
    {
        type            patch;
        physicalType    patch;
        nFaces          0;
        startFace       130789;
    }
    walls_intrusion
    {
        type            patch;
        physicalType    patch;
        nFaces          468;
        startFace       130789;
    }
    outlet
    {
        type            patch;
        physicalType    patch;
        nFaces          437;
        startFace       131257;
    }
    procBoundary1to0
    {
        type            processor;
        inGroups        List<word> 1(processor);
        nFaces          2008;
        startFace       131694;
        matchTolerance  0.0001;
        transform       unknown;
        myProcNo        1;
        neighbProcNo    0;
    }
)

// ************************************************************************* //
