/*--------------------------------*- C++ -*----------------------------------*\
| =========                 |                                                 |
| \\      /  F ield         | OpenFOAM: The Open Source CFD Toolbox           |
|  \\    /   O peration     | Version:  4.0                                   |
|   \\  /    A nd           | Web:      www.OpenFOAM.org                      |
|    \\/     M anipulation  |                                                 |
\*---------------------------------------------------------------------------*/
FoamFile
{
    version     2.0;
    format      ascii;
    class       dictionary;
    object      topoSetDict;
}

// * * * * * * * * * * * * * * * * * * * * * * * * * * * * * * * * * * * * * //

actions
(
    // TAILORING
    {
        name    electrodeHole;
        type    cellSet;
        action  new;
        source  boxToCell;
        sourceInfo
        {
            box (0.001875 0.00145 0) (0.002108 0.001549 0.006);
        }
    }
    {
        name    electrodeHole;
        type    cellSet;
        action  add;
        source  boxToCell;
        sourceInfo
        {
            box (0.03437 0.00145 0) (0.03462 0.001549 0.006);
        }
    }
    {
        name    electrode;
        type    cellZoneSet;
        action  add;
        source  setToCellZone;
        sourceInfo
        {
            set electrodeHole;
        }
    }

    {
        name    fluidHole;
        type    cellSet;
        action  new;
        source  boxToCell;
        sourceInfo
        {
            box (0.001875 0.00145 -0.003) (0.002108 0.001549 -0.0005);
        }
    }
    {
        name    fluidHole;
        type    cellSet;
        action  add;
        source  boxToCell;
        sourceInfo
        {
            box (0.03437 0.00145 -0.003) (0.03462 0.001549 -0.0005);
        }
    }
    {
        name    fluid;
        type    cellZoneSet;
        action  add;
        source  setToCellZone;
        sourceInfo
        {
            set fluidHole;
        }
    }

    {
        name    intrusionHole;
        type    cellSet;
        action  new;
        source  boxToCell;
        sourceInfo
        {
            box (0.001875 0.00145 -0.0005) (0.002108 0.001549 0);
        }
    }
    {
        name    intrusionHole;
        type    cellSet;
        action  add;
        source  boxToCell;
        sourceInfo
        {
            box (0.03437 0.00145 -0.0005) (0.03462 0.001549 0);
        }
    }
    {
        name    intrusion;
        type    cellZoneSet;
        action  add;
        source  setToCellZone;
        sourceInfo
        {
            set intrusionHole;
        }
    }

    {
        name    holeCellSet;
        type    cellSet;
        action  new;
        source  cylinderToCell;
        sourceInfo
        {
                p1          (0.001992      0.0015  -0.003);
                p2          (0.001992      0.0015  0.006);
                radius      0.04e-3;
        }
    }
    
    {
        name    holeCellSet;
        type    cellSet;
        action  add;
        source  cylinderToCell;
        sourceInfo
        {
                p1          (0.0345      0.0015  -0.003);
                p2          (0.0345      0.0015  0.006);
                radius      0.04e-3;
        }
    }
    
    {
        name    holes;
        type    cellZoneSet;
        action  new;
        source  setToCellZone;
        sourceInfo
        {
            set holeCellSet;
        }
    }
    {
        name    electrode;
        type    cellZoneSet;
        action  delete;
        source  setToCellZone;
        sourceInfo
        {
            set holeCellSet;
        }
    }

        {
        name    fluid;
        type    cellZoneSet;
        action  delete;
        source  setToCellZone;
        sourceInfo
        {
            set holeCellSet;
        }
    }

        {
        name    intrusion;
        type    cellZoneSet;
        action  delete;
        source  setToCellZone;
        sourceInfo
        {
            set holeCellSet;
        }
    }
 
);


// ************************************************************************* //
