/*--------------------------------*- C++ -*----------------------------------*\
| =========                 |                                                 |
| \\      /  F ield         | OpenFOAM: The Open Source CFD Toolbox           |
|  \\    /   O peration     | Version:  4.0                                   |
|   \\  /    A nd           | Web:      www.OpenFOAM.org                      |
|    \\/     M anipulation  |                                                 |
\*---------------------------------------------------------------------------*/
FoamFile
{
    version     2.0;
    format      ascii;
    class       dictionary;
    object      topoSetDict;
}

// * * * * * * * * * * * * * * * * * * * * * * * * * * * * * * * * * * * * * //

actions
(
    //HOLES
    {
        name    holeCellSet;
        type    cellSet;
        action  new;
        source  cylinderToCell;
        sourceInfo
        {
                p1          (0.0015      0.0015  -0.003);
                p2          (0.0015      0.0015  0.00032);
                radius      0.05e-3;
        }
    }
    
    {
        name    holeCellSet;
        type    cellSet;
        action  add;
        source  cylinderToCell;
        sourceInfo
        {
                p1          (0.0345      0.0015  -0.003);
                p2          (0.0345      0.0015  0.00032);
                radius      0.00005;
        }
    }
    {
        name    holes;
        type    cellZoneSet;
        action  new;
        source  setToCellZone;
        sourceInfo
        {
            set holeCellSet;
        }
    }

);


// ************************************************************************* //
