/*--------------------------------*- C++ -*----------------------------------*\
  =========                 |
  \\      /  F ield         | OpenFOAM: The Open Source CFD Toolbox
   \\    /   O peration     | Website:  https://openfoam.org
    \\  /    A nd           | Version:  7
     \\/     M anipulation  |
\*---------------------------------------------------------------------------*/
FoamFile
{
    version     2.0;
    format      ascii;
    class       polyBoundaryMesh;
    location    "constant/polyMesh";
    object      boundary;
}
// * * * * * * * * * * * * * * * * * * * * * * * * * * * * * * * * * * * * * //

7
(
    walls_channel
    {
        type            patch;
        physicalType    patch;
        nFaces          0;
        startFace       128119;
    }
    walls_porous
    {
        type            patch;
        physicalType    patch;
        nFaces          4589;
        startFace       128119;
    }
    inlet
    {
        type            patch;
        physicalType    patch;
        nFaces          0;
        startFace       132708;
    }
    walls_intrusion
    {
        type            patch;
        physicalType    patch;
        nFaces          0;
        startFace       132708;
    }
    outlet
    {
        type            patch;
        physicalType    patch;
        nFaces          0;
        startFace       132708;
    }
    procBoundary1to0
    {
        type            processor;
        inGroups        List<word> 1(processor);
        nFaces          1764;
        startFace       132708;
        matchTolerance  0.0001;
        transform       unknown;
        myProcNo        1;
        neighbProcNo    0;
    }
    procBoundary1to2
    {
        type            processor;
        inGroups        List<word> 1(processor);
        nFaces          1421;
        startFace       134472;
        matchTolerance  0.0001;
        transform       unknown;
        myProcNo        1;
        neighbProcNo    2;
    }
)

// ************************************************************************* //
