/*--------------------------------*- C++ -*----------------------------------*\
| =========                 |                                                 |
| \\      /  F ield         | OpenFOAM: The Open Source CFD Toolbox           |
|  \\    /   O peration     | Version:  4.0                                   |
|   \\  /    A nd           | Web:      www.OpenFOAM.org                      |
|    \\/     M anipulation  |                                                 |
\*---------------------------------------------------------------------------*/
FoamFile
{
    version     2.0;
    format      binary;
    class       volScalarField;
    location    "1";
    object      p;
}
// * * * * * * * * * * * * * * * * * * * * * * * * * * * * * * * * * * * * * //

dimensions      [0 2 -2 0 0 0 0];

internalField   uniform 0;

boundaryField
{
    wallsPorous
    {
        type            zeroGradient;
    }
    walls
    {
        type            zeroGradient;
    }

    outlet1
    {
        type            fixedValue;
        value           $internalField;
    }

    outlet2
    {
        type            fixedValue;
        value           $internalField;
    }

    inlet
    {
        type            zeroGradient;
    }

    defaultFaces
    {
        type            zeroGradient;
    }
}


// ************************************************************************* //
