/*--------------------------------*- C++ -*----------------------------------*\
| =========                 |                                                 |
| \\      /  F ield         | OpenFOAM: The Open Source CFD Toolbox           |
|  \\    /   O peration     | Version:  4.0                                   |
|   \\  /    A nd           | Web:      www.OpenFOAM.org                      |
|    \\/     M anipulation  |                                                 |
\*---------------------------------------------------------------------------*/
FoamFile
{
    version 2.0;
    format binary;
    class volVectorField;
    location "1";
    object U;
}
// * * * * * * * * * * * * * * * * * * * * * * * * * * * * * * * * * * * * * //

dimensions [0 1 -1 0 0 0 0];

internalField uniform (0 0 0);

boundaryField
{
    wallsPorous
    {
        type slip;
        value uniform (0 0 0);
    }
    walls
    {
        type noSlip;
    }

    outlet1
    {
        type inletOutlet;
        inletValue uniform (0 0 0);
        value uniform (0 0 0);
    }

    outlet2
    {
        type inletOutlet;
        inletValue uniform (0 0 0);
        value uniform (0 0 0);
    }

    inlet
    {
        type flowRateInletVelocity;
        volumetricFlowRate constant 6e-07;
    }

    defaultFaces
    {
        type zeroGradient;
    }
}
// ************************************************************************* //
