/*--------------------------------*- C++ -*----------------------------------*\
  =========                 |
  \\      /  F ield         | OpenFOAM: The Open Source CFD Toolbox
   \\    /   O peration     | Website:  https://openfoam.org
    \\  /    A nd           | Version:  7
     \\/     M anipulation  |
\*---------------------------------------------------------------------------*/
FoamFile
{
    version     2.0;
    format      ascii;
    class       polyBoundaryMesh;
    location    "1/polyMesh";
    object      boundary;
}
// * * * * * * * * * * * * * * * * * * * * * * * * * * * * * * * * * * * * * //

5
(
    walls_channel
    {
        type            patch;
        physicalType    patch;
        nFaces          6656;
        startFace       512004;
    }
    walls_porous
    {
        type            patch;
        physicalType    patch;
        nFaces          14558;
        startFace       518660;
    }
    inlet
    {
        type            patch;
        physicalType    patch;
        nFaces          437;
        startFace       533218;
    }
    walls_intrusion
    {
        type            patch;
        physicalType    patch;
        nFaces          2106;
        startFace       533655;
    }
    outlet
    {
        type            patch;
        physicalType    patch;
        nFaces          437;
        startFace       535761;
    }
)

// ************************************************************************* //
